
&jules_drive
diff_frac_const=  0.1,,
data_start=   '2002-01-01 00:00:00',,
data_end=   '2015-01-01 00:00:00',,
data_period=   1800,,
file=   'metolius_met.dat',,
nvars=   7,,
var=  'sw_down' 'lw_down' 'precip' 't' 'wind' 'pstar' 'q',,
interp=  'nf' 'nf' 'nf' 'nf' 'nf' 'nf' 'nf' 'nf',,
l_daily_disagg=  .false.,,
l_imogen=  .false.,,
l_perturb_driving=  .false.,,
/


