
&jules_input_grid
nx=  1,,
ny =  1,,
/

&jules_latlon
latitude=   44.4523,,
longitude=   -121.5574,,
/

&jules_land_frac
/

&jules_model_grid
/

&jules_surf_hgt
zero_height=  .true.,,
/


