
&jules_output
dump_period=  100,,
nprofiles=  1,,
output_dir= './output/ens_run_15',,
run_id= 'ens4',,
/

&jules_output_profile
file_period=  0,,
nvars=  10,,
output_main_run=  .true.,,
output_period=  86400,,
output_spinup=  .false.,,
output_type=  10*'M',,
profile_name=  'daily',,
var=  'rainfall', 'precip', 'smcl', 't_soil', 'tstar', 'fsmc', 'npp', 'gpp', 'lai', 'latent_heat',,
var_name=  'rainfall', 'precip', 'smcl', 't_soil', 'tstar', 'fsmc', 'npp', 'gpp', 'lai', 'latent_heat',,
/


